demo/texas7k/Texas2k_series24_case3_2024summerpeak_0_33.RAW
0,   100.00, 33, 0, 0, 60.00     / PSS(R)E 33 RAW created by rawd33  TUE, MAY 06 2025  16:56
TEXAS2K_SERIES24_CASE3_2024SUMMERPEAK
THIS IS A SYNTHETIC POWER SYSTEM MODEL THAT DOES NOT REPRESE
  1001,'ODESSA 2 0  ', 115.0000,1,   1,   9,   1,0.98253, -13.0053,1.10000,0.90000,1.10000,0.90000
  1002,'PRESIDIO 2 0', 115.0000,1,   1,   9,   1,1.02759,   7.4097,1.10000,0.90000,1.10000,0.90000
  1003,'O DONNELL ~1', 115.0000,1,   1,   9,   1,0.99754,  -6.6614,1.10000,0.90000,1.10000,0.90000
  1004,'O DONNELL ~2', 230.0000,2,   1,   9,   1,1.01000, -13.2393,1.10000,0.90000,1.10000,0.90000
  1005,'BIG SPRING~8', 115.0000,1,   1,   9,   1,1.00007,  -3.7663,1.10000,0.90000,1.10000,0.90000
  1006,'BIG SPRING~9',  13.8000,2,   1,   9,   1,1.00000,  -2.9291,1.10000,0.90000,1.10000,0.90000
  1007,'VAN HORN 0  ', 115.0000,2,   1,   9,   1,1.03000,  11.9048,1.10000,0.90000,1.10000,0.90000
  1008,'IRAAN 2 0   ', 115.0000,1,   1,   9,   1,1.00941,  -0.8015,1.10000,0.90000,1.10000,0.90000
  1009,'IRAAN 2 1   ',  13.8000,2,   1,   9,   1,1.00000,   1.7931,1.10000,0.90000,1.10000,0.90000
  1010,'PRESIDIO 1 0', 115.0000,1,   1,   9,   1,1.03000,   7.2621,1.10000,0.90000,1.10000,0.90000
  1011,'PRESIDIO 1 1',  22.0000,2,   1,   9,   1,1.03025,   8.6138,1.10000,0.90000,1.10000,0.90000
  1012,'SANDERSON 0 ', 115.0000,1,   1,   9,   1,1.01694, -12.2044,1.10000,0.90000,1.10000,0.90000
  1013,'MONAHANS 2 0', 115.0000,1,   1,   9,   1,1.00422,  -0.2009,1.10000,0.90000,1.10000,0.90000
  1014,'GRANDFALLS 0', 115.0000,1,   1,   9,   1,1.00538,   0.1678,1.10000,0.90000,1.10000,0.90000
  1015,'MARFA 0     ', 115.0000,1,   1,   9,   1,1.03176,   8.5323,1.10000,0.90000,1.10000,0.90000
  1016,'GARDEN CIT~1', 115.0000,2,   1,   9,   1,1.00000,   0.9088,1.10000,0.90000,1.10000,0.90000
  1017,'ODESSA 4 0  ', 115.0000,1,   1,   9,   1,0.98920,  -8.1529,1.10000,0.90000,1.10000,0.90000
  1018,'NOTREES 0   ', 115.0000,1,   1,   9,   1,0.99871,  -6.9140,1.10000,0.90000,1.10000,0.90000
  1019,'MIDLAND 4 0 ', 115.0000,1,   1,   9,   1,0.99446, -11.1271,1.10000,0.90000,1.10000,0.90000
  1020,'BIG SPRING~1', 115.0000,1,   1,   9,   1,1.00290,  -7.9207,1.10000,0.90000,1.10000,0.90000
  1021,'BIG SPRING~2',  13.8000,2,   1,   9,   1,1.00000,  -5.3359,1.10000,0.90000,1.10000,0.90000
  1022,'O DONNELL ~3', 115.0000,2,   1,   9,   1,1.00202,  -5.7440,1.10000,0.90000,1.10000,0.90000
  1023,'O DONNELL ~4',  13.8000,2,   1,   9,   1,1.01000,   0.7717,1.10000,0.90000,1.10000,0.90000
  1024,'ODESSA 6 0  ', 115.0000,1,   1,   9,   1,1.00197,  -5.8781,1.10000,0.90000,1.10000,0.90000
  1025,'BIG SPRIN~14', 115.0000,1,   1,   9,   1,1.00247,  -6.6708,1.10000,0.90000,1.10000,0.90000
  1026,'BIG SPRIN~15',  13.8000,2,   1,   9,   1,1.00000,   0.7551,1.10000,0.90000,1.10000,0.90000
  1027,'MIDLAND 2 0 ', 115.0000,2,   1,   9,   1,1.00000, -10.8447,1.10000,0.90000,1.10000,0.90000
  1028,'COAHOMA 0   ', 115.0000,2,   1,   9,   1,1.00000,  -9.1535,1.10000,0.90000,1.10000,0.90000
  1029,'MIDLAND 3 0 ', 115.0000,2,   1,   9,   1,1.00000,  -9.4369,1.10000,0.90000,1.10000,0.90000
  1030,'ALPINE 0    ', 115.0000,2,   1,   9,   1,1.01920,   3.8525,1.10000,0.90000,1.10000,0.90000
  1031,'FORT DAVIS 0', 115.0000,1,   1,   9,   1,1.01459,   5.5987,1.10000,0.90000,1.10000,0.90000
  1032,'MCCAMEY 1 0 ', 115.0000,2,   1,   9,   1,0.99498,  -2.2759,1.10000,0.90000,1.10000,0.90000
  1033,'MCCAMEY 1 1 ', 230.0000,2,   1,   9,   1,1.00000,  -5.0016,1.10000,0.90000,1.10000,0.90000
  1034,'BIG SPRING~6', 115.0000,1,   1,   9,   1,1.00145,  -1.7420,1.10000,0.90000,1.10000,0.90000
  1035,'BIG SPRING~7',  13.8000,2,   1,   9,   1,1.00000,   0.7971,1.10000,0.90000,1.10000,0.90000
  1036,'CRANE 0     ', 115.0000,2,   1,   9,   1,1.00046,   0.6831,1.10000,0.90000,1.10000,0.90000
  1037,'ODESSA 5 0  ', 115.0000,2,   1,   9,   1,0.98573,  -9.7968,1.10000,0.90000,1.10000,0.90000
  1038,'FORT STOCK~1', 115.0000,1,   1,   9,   1,1.01012,   1.7088,1.10000,0.90000,1.10000,0.90000
  1039,'FORT STOCK~2',  22.0000,2,   1,   9,   1,1.00000,   5.8819,1.10000,0.90000,1.10000,0.90000
  1040,'ANDREWS 0   ', 115.0000,2,   1,   9,   1,1.00000,  -4.2877,1.10000,0.90000,1.10000,0.90000
  1041,'FORSAN 0    ', 115.0000,1,   1,   9,   1,1.00404,  -2.4028,1.10000,0.90000,1.10000,0.90000
  1042,'FORSAN 1    ',  13.8000,1,   1,   9,   1,1.00404,  -2.4028,1.10000,0.90000,1.10000,0.90000
  1043,'FORSAN 2    ',  13.8000,2,   1,   9,   1,1.00000,   0.0961,1.10000,0.90000,1.10000,0.90000
  1044,'BIG LAKE 0  ', 115.0000,2,   1,   9,   1,1.00000, -13.0108,1.10000,0.90000,1.10000,0.90000
  1045,'MIDLAND 5 0 ', 115.0000,1,   1,   9,   1,0.98099, -12.4950,1.10000,0.90000,1.10000,0.90000
  1046,'OZONA 0     ', 115.0000,2,   1,   9,   1,1.00000,  -3.8417,1.10000,0.90000,1.10000,0.90000
  1047,'MONAHANS 1 0', 115.0000,1,   1,   9,   1,0.99948,  -2.9280,1.10000,0.90000,1.10000,0.90000
  1048,'MONAHANS 1 1',  18.0000,1,   1,   9,   1,0.99948,  -2.9280,1.10000,0.90000,1.10000,0.90000
  1049,'MONAHANS 1 2',  18.0000,1,   1,   9,   1,0.99948,  -2.9280,1.10000,0.90000,1.10000,0.90000
  1050,'MONAHANS 1 3',  18.0000,2,   1,   9,   1,1.00000,  -0.9633,1.10000,0.90000,1.10000,0.90000
  1051,'MONAHANS 1 4',  18.0000,2,   1,   9,   1,1.00000,  -0.3908,1.10000,0.90000,1.10000,0.90000
  1052,'MONAHANS 1 5',  18.0000,2,   1,   9,   1,1.00000,  -1.2947,1.10000,0.90000,1.10000,0.90000
  1053,'MONAHANS 1 6', 230.0000,1,   1,   9,   1,1.00333,  -6.4417,1.10000,0.90000,1.10000,0.90000
  1054,'STANTON 0   ', 115.0000,1,   1,   9,   1,1.00521,  -7.2001,1.10000,0.90000,1.10000,0.90000
  1055,'ODONNELL 0  ', 115.0000,2,   1,   9,   1,1.00000,  -5.8399,1.10000,0.90000,1.10000,0.90000
  1056,'LENORAH 0   ', 115.0000,1,   1,   9,   1,1.01751,  -7.8717,1.10000,0.90000,1.10000,0.90000
  1057,'LENORAH 1   ',  18.0000,1,   1,   9,   1,1.01751,  -7.8717,1.10000,0.90000,1.10000,0.90000
  1058,'IRAAN 3 0   ', 115.0000,1,   1,   9,   1,1.02101,  -2.4431,1.10000,0.90000,1.10000,0.90000
  1059,'IRAAN 3 1   ',  22.0000,1,   1,   9,   1,1.02101,  -2.4431,1.10000,0.90000,1.10000,0.90000
  1060,'IRAAN 3 2   ',  22.0000,1,   1,   9,   1,1.02101,  -2.4431,1.10000,0.90000,1.10000,0.90000
  1061,'BIG SPRIN~10', 115.0000,2,   1,   9,   1,1.00113,  -4.6631,1.10000,0.90000,1.10000,0.90000
  1062,'BIG SPRIN~11',  13.8000,2,   1,   9,   1,1.01000,  -2.8624,1.10000,0.90000,1.10000,0.90000
  1063,'BIG SPRIN~12',  13.8000,2,   1,   9,   1,1.01000,  -2.2977,1.10000,0.90000,1.10000,0.90000
  1064,'ODESSA 3 0  ', 115.0000,1,   1,   9,   1,0.97615, -13.7571,1.10000,0.90000,1.10000,0.90000
  1065,'BIG SPRING~4', 115.0000,1,   1,   9,   1,1.00589,  -2.3091,1.10000,0.90000,1.10000,0.90000
  1066,'BIG SPRING~5',  13.8000,2,   1,   9,   1,1.00000,   3.4940,1.10000,0.90000,1.10000,0.90000
  1067,'BIG SPRIN~13', 115.0000,1,   1,   9,   1,1.00196,  -2.8158,1.10000,0.90000,1.10000,0.90000
  1068,'MIDLAND 1 0 ', 115.0000,1,   1,   9,   1,0.98029,  -1.7376,1.10000,0.90000,1.10000,0.90000
  1069,'IRAAN 1 0   ', 115.0000,1,   1,   9,   1,1.01922,  -0.3532,1.10000,0.90000,1.10000,0.90000
  1070,'IRAAN 1 1   ',  13.8000,2,   1,   9,   1,1.04000,   3.1137,1.10000,0.90000,1.10000,0.90000
  1071,'ODESSA 1 0  ', 115.0000,1,   1,   9,   1,0.98878, -12.2489,1.10000,0.90000,1.10000,0.90000
  1072,'ODESSA 1 1  ',  18.0000,2,   1,   9,   1,1.01000,  -8.6813,1.10000,0.90000,1.10000,0.90000
  1073,'ODESSA 1 2  ',  18.0000,2,   1,   9,   1,1.01000,  -6.2263,1.10000,0.90000,1.10000,0.90000
  1074,'ODESSA 1 3  ',  18.0000,2,   1,   9,   1,1.01000,  -7.0054,1.10000,0.90000,1.10000,0.90000
  1075,'ODESSA 1 4  ',  18.0000,2,   1,   9,   1,1.01000,  -8.0548,1.10000,0.90000,1.10000,0.90000
  1076,'ODESSA 1 5  ',  18.0000,1,   1,   9,   1,0.98878, -12.2489,1.10000,0.90000,1.10000,0.90000
  1077,'ODESSA 1 6  ',  18.0000,1,   1,   9,   1,0.98878, -12.2489,1.10000,0.90000,1.10000,0.90000
  1078,'ODESSA 1 7  ',  18.0000,2,   1,   9,   1,1.01000,  -8.2484,1.10000,0.90000,1.10000,0.90000
  1079,'ODESSA 1 8  ', 500.0000,2,   1,   9,   1,1.01023, -28.4602,1.10000,0.90000,1.10000,0.90000
  1080,'ODESSA 1 9  ',  18.0000,2,   1,   9,   1,1.01000,  -8.0434,1.10000,0.90000,1.10000,0.90000
  1081,'ODESSA 1 10 ', 230.0000,1,   1,   9,   1,1.00414,  -8.8391,1.10000,0.90000,1.10000,0.90000
  1082,'FORT STOCK~3', 115.0000,2,   1,   9,   1,1.01429,   1.8855,1.10000,0.90000,1.10000,0.90000
  1083,'FORT STOCK~4', 115.0000,2,   1,   9,   1,1.01197,   4.1185,1.10000,0.90000,1.10000,0.90000
  1084,'BIG SPRING~3', 115.0000,2,   1,   9,   1,1.00963,  -8.3845,1.10000,0.90000,1.10000,0.90000
  1085,'KERMIT 0    ', 115.0000,2,   1,   9,   1,1.00000,  -0.4442,1.10000,0.90000,1.10000,0.90000
  1086,'PECOS 0     ', 115.0000,2,   1,   9,   1,1.02024,  -1.0142,1.10000,0.90000,1.10000,0.90000
  1087,'SHEFFIELD 0 ', 115.0000,1,   1,   9,   1,1.03000,  -6.4204,1.10000,0.90000,1.10000,0.90000
  1088,'MCCAMEY 2 0 ', 115.0000,2,   1,   9,   1,1.00000,   1.4099,1.10000,0.90000,1.10000,0.90000
  1089,'LAMESA 0    ', 115.0000,2,   1,   9,   1,1.00000,  -3.5044,1.10000,0.90000,1.10000,0.90000
  1090,'GOLDSMITH 0 ', 115.0000,2,   1,   9,   1,1.01228,  -4.1447,1.10000,0.90000,1.10000,0.90000
  1091,'RALLS 2 0   ', 161.0000,1,   1,   9,   1,0.99170,  -8.8875,1.10000,0.90000,1.10000,0.90000
  2001,'PARIS 3 0   ', 161.0000,1,   2,  11,   1,1.01299, -52.7387,1.10000,0.90000,1.10000,0.90000
  2002,'SAVOY 0     ', 500.0000,1,   2,  11,   1,1.02159, -53.3669,1.10000,0.90000,1.10000,0.90000
  2003,'SAVOY 1     ', 161.0000,1,   2,  11,   1,1.02217, -55.2033,1.10000,0.90000,1.10000,0.90000
  2004,'SAVOY 2     ',  13.8000,1,   2,  11,   1,1.02159, -53.3669,1.10000,0.90000,1.10000,0.90000
  2005,'SAVOY 3     ',  13.8000,1,   2,  11,   1,1.02159, -53.3669,1.10000,0.90000,1.10000,0.90000
  2006,'SAVOY 4     ',  13.8000,1,   2,  11,   1,1.02159, -53.3669,1.10000,0.90000,1.10000,0.90000
  2007,'HONEY GROV~1', 161.0000,1,   2,  11,   1,1.01430, -52.1996,1.10000,0.90000,1.10000,0.90000
  2008,'MEMPHIS 0   ', 161.0000,2,   2,  10,   1,1.00659,  -2.2814,1.10000,0.90000,1.10000,0.90000
  2009,'IOWA PARK 0 ', 161.0000,1,   2,  11,   1,0.99986, -27.4261,1.10000,0.90000,1.10000,0.90000
  2010,'VERNON 2 0  ', 161.0000,2,   2,  10,   1,1.00000,  -9.7503,1.10000,0.90000,1.10000,0.90000
  2011,'PANHANDLE ~2', 500.0000,2,   2,  10,   1,1.02218, -13.4542,1.10000,0.90000,1.10000,0.90000
  2012,'PANHANDLE ~3', 161.0000,2,   2,  10,   1,0.99932,  -8.1712,1.10000,0.90000,1.10000,0.90000
  2013,'PANHANDLE ~4',  18.0000,2,   2,  10,   1,1.01168, -11.4761,1.10000,0.90000,1.10000,0.90000
  2014,'CHILDRESS 0 ', 161.0000,1,   2,  10,   1,0.99939,  -2.3301,1.10000,0.90000,1.10000,0.90000
  2015,'FORESTBURG 0', 161.0000,1,   2,  11,   1,0.99795, -48.7602,1.10000,0.90000,1.10000,0.90000
  2016,'SHERMAN 3 0 ', 161.0000,2,   2,  11,   1,1.01898, -61.0157,1.10000,0.90000,1.10000,0.90000
  2017,'PANHANDLE ~7', 500.0000,1,   2,  10,   1,1.03251, -17.2134,1.10000,0.90000,1.10000,0.90000
  2018,'PANHANDLE ~8', 161.0000,1,   2,  10,   1,1.01042, -14.2338,1.10000,0.90000,1.10000,0.90000
  2019,'PANHANDLE ~9',  20.0000,1,   2,  10,   1,1.03251, -17.2134,1.10000,0.90000,1.10000,0.90000
  2020,'WICHITA F~12', 161.0000,1,   2,  11,   1,0.98566, -32.0794,1.10000,0.90000,1.10000,0.90000
  2021,'PARIS 2 0   ', 500.0000,1,   2,  11,   1,1.02186, -49.6117,1.10000,0.90000,1.10000,0.90000
  2022,'PARIS 2 1   ', 161.0000,1,   2,  11,   1,1.01988, -51.4083,1.10000,0.90000,1.10000,0.90000
  2023,'PARIS 2 2   ',  13.8000,2,   2,  11,   1,1.02000, -48.4067,1.10000,0.90000,1.10000,0.90000
  2024,'PARIS 2 3   ',  13.8000,2,   2,  11,   1,1.02000, -47.8966,1.10000,0.90000,1.10000,0.90000
  2025,'WICHITA F~10', 161.0000,1,   2,  11,   1,0.98404, -32.0855,1.10000,0.90000,1.10000,0.90000
  2026,'WHEELER 0   ', 161.0000,1,   2,  10,   1,1.00532, -12.4788,1.10000,0.90000,1.10000,0.90000
  2027,'DEPORT 0    ', 161.0000,1,   2,  11,   1,1.01397, -53.1069,1.10000,0.90000,1.10000,0.90000
  2028,'WICHITA FA~9', 161.0000,1,   2,  11,   1,0.98914, -32.8129,1.10000,0.90000,1.10000,0.90000
  2029,'SILVERTON 0 ', 161.0000,2,   2,  10,   1,1.00000,  -1.1727,1.10000,0.90000,1.10000,0.90000
  2030,'BONHAM 0    ', 161.0000,1,   2,  11,   1,1.00378, -55.9867,1.10000,0.90000,1.10000,0.90000
  2031,'MATADOR 0   ', 161.0000,1,   2,  10,   1,1.00356,  -8.5951,1.10000,0.90000,1.10000,0.90000
  2032,'ARTHUR CIT~1', 161.0000,1,   2,  11,   1,1.01580, -51.6475,1.10000,0.90000,1.10000,0.90000
  2033,'LEONARD 0   ', 161.0000,1,   2,  11,   1,1.00712, -57.1312,1.10000,0.90000,1.10000,0.90000
  2034,'GORDONVILL~1', 161.0000,1,   2,  11,   1,1.01885, -60.4859,1.10000,0.90000,1.10000,0.90000
  2035,'KNOX CITY 0 ', 161.0000,2,   2,  10,   1,1.00000,  -3.7226,1.10000,0.90000,1.10000,0.90000
  2036,'WICHITA F~13', 161.0000,1,   2,  11,   1,0.98896, -30.5000,1.10000,0.90000,1.10000,0.90000
  2037,'LINDSAY 0   ', 161.0000,1,   2,  11,   1,1.00526, -48.7345,1.10000,0.90000,1.10000,0.90000
  2038,'ECTOR 0     ', 161.0000,1,   2,  11,   1,1.02139, -55.2533,1.10000,0.90000,1.10000,0.90000
  2039,'SUNSET 0    ', 161.0000,1,   2,  11,   1,0.99012, -46.9381,1.10000,0.90000,1.10000,0.90000
  2040,'CLARKSVILL~1', 161.0000,1,   2,  11,   1,1.01829, -51.9938,1.10000,0.90000,1.10000,0.90000
  2041,'PANHANDLE ~5', 161.0000,2,   2,  10,   1,1.00000,  -4.6742,1.10000,0.90000,1.10000,0.90000
  2042,'PANHANDLE ~6',  18.0000,2,   2,  10,   1,1.01000,  -2.4015,1.10000,0.90000,1.10000,0.90000
  2043,'SADLER 0    ', 161.0000,1,   2,  11,   1,1.01878, -60.7339,1.10000,0.90000,1.10000,0.90000
  2044,'WHITESBORO 0', 161.0000,1,   2,  11,   1,1.00386, -52.8246,1.10000,0.90000,1.10000,0.90000
  2045,'SHEPPARD A~1', 161.0000,1,   2,  11,   1,0.98597, -32.2892,1.10000,0.90000,1.10000,0.90000
  2046,'POTTSBORO 0 ', 161.0000,1,   2,  11,   1,1.01924, -60.1603,1.10000,0.90000,1.10000,0.90000
  2047,'BELLS 0     ', 161.0000,1,   2,  11,   1,1.02123, -56.0990,1.10000,0.90000,1.10000,0.90000
  2048,'CROSBYTON 0 ', 161.0000,2,   2,  10,   1,1.00000,  -7.0568,1.10000,0.90000,1.10000,0.90000
  2049,'ELECTRA 0   ', 161.0000,2,   2,  10,   1,1.00000, -20.6959,1.10000,0.90000,1.10000,0.90000
  2050,'PATTONVILL~1', 161.0000,1,   2,  11,   1,1.00882, -55.5139,1.10000,0.90000,1.10000,0.90000
  2051,'HENRIETTA 0 ', 161.0000,2,   2,  11,   1,1.00000, -39.3611,1.10000,0.90000,1.10000,0.90000
  2052,'PANHANDLE~13', 161.0000,1,   2,  10,   1,0.99844,  -5.7449,1.10000,0.90000,1.10000,0.90000
  2053,'BOWIE 0     ', 161.0000,1,   2,  11,   1,0.99276, -47.8246,1.10000,0.90000,1.10000,0.90000
  2054,'WICHITA FA~1', 500.0000,1,   2,  11,   1,0.98827, -31.8946,1.10000,0.90000,1.10000,0.90000
  2055,'WICHITA FA~2', 161.0000,1,   2,  11,   1,0.98643, -31.5831,1.10000,0.90000,1.10000,0.90000
  2056,'WICHITA FA~3',  18.0000,1,   2,  11,   1,0.98827, -31.8946,1.10000,0.90000,1.10000,0.90000
  2057,'WICHITA FA~4',  18.0000,2,   2,  11,   1,0.99000, -29.4036,1.10000,0.90000,1.10000,0.90000
  2058,'WHITE DEER 0', 161.0000,1,   2,  10,   1,1.00126,  -5.6365,1.10000,0.90000,1.10000,0.90000
  2059,'WHITE DEER 1',  13.8000,2,   2,  10,   1,1.00000,  -2.9572,1.10000,0.90000,1.10000,0.90000
  2060,'ROXTON 0    ', 161.0000,1,   2,  11,   1,1.01083, -54.3199,1.10000,0.90000,1.10000,0.90000
  2061,'VERNON 1 0  ', 161.0000,1,   2,  10,   1,1.00226, -16.3570,1.10000,0.90000,1.10000,0.90000
  2062,'VERNON 1 1  ',  18.0000,2,   2,  10,   1,1.01467, -14.5724,1.10000,0.90000,1.10000,0.90000
  2063,'DENISON 2 0 ', 161.0000,1,   2,  11,   1,1.02101, -59.5744,1.10000,0.90000,1.10000,0.90000
  2064,'SUMNER 0    ', 161.0000,1,   2,  11,   1,1.01483, -52.8669,1.10000,0.90000,1.10000,0.90000
  2065,'GAINESVILL~1', 161.0000,2,   2,  11,   1,1.00000, -50.4848,1.10000,0.90000,1.10000,0.90000
  2066,'ASPERMONT 0 ', 161.0000,1,   2,  10,   1,0.99494,  -9.5678,1.10000,0.90000,1.10000,0.90000
  2067,'WICHITA F~11', 161.0000,1,   2,  11,   1,0.98336, -32.4511,1.10000,0.90000,1.10000,0.90000
  2068,'WINDTHORST 0', 161.0000,1,   2,  11,   1,0.99406, -32.0745,1.10000,0.90000,1.10000,0.90000
  2069,'HOWE 0      ', 161.0000,1,   2,  11,   1,1.03000, -60.1484,1.10000,0.90000,1.10000,0.90000
  2070,'ARCHER 2 0  ', 161.0000,1,   2,  11,   1,0.99696, -32.1672,1.10000,0.90000,1.10000,0.90000
  2071,'ARCHER 2 1  ',  18.0000,2,   2,  11,   1,1.00000, -29.3242,1.10000,0.90000,1.10000,0.90000
  2072,'COLLINSVIL~1', 161.0000,1,   2,  11,   1,1.02390, -58.2636,1.10000,0.90000,1.10000,0.90000
  2073,'JAYTON 0    ', 161.0000,1,   2,  10,   1,0.99653, -13.9268,1.10000,0.90000,1.10000,0.90000
  2074,'JAYTON 1    ', 115.0000,1,   2,  10,   1,0.99674, -12.1008,1.10000,0.90000,1.10000,0.90000
  2075,'JAYTON 2    ', 115.0000,1,   2,  10,   1,0.99674, -12.1008,1.10000,0.90000,1.10000,0.90000
  2076,'JAYTON 3    ',  24.0000,2,   2,  10,   1,1.00177, -13.2036,1.10000,0.90000,1.10000,0.90000
  2077,'MUENSTER 1 0', 161.0000,1,   2,  11,   1,1.01288, -46.3281,1.10000,0.90000,1.10000,0.90000
  2078,'MUENSTER 1 1',  13.8000,2,   2,  11,   1,1.02000, -43.7618,1.10000,0.90000,1.10000,0.90000
  2079,'PADUCAH 0   ', 161.0000,1,   2,  10,   1,1.00136,  -8.8135,1.10000,0.90000,1.10000,0.90000
  2080,'NOCONA 0    ', 161.0000,1,   2,  11,   1,0.99924, -41.6634,1.10000,0.90000,1.10000,0.90000
  2081,'DODD CITY 0 ', 161.0000,2,   2,  11,   1,1.01980, -55.2845,1.10000,0.90000,1.10000,0.90000
  2082,'WICHITA FA~5', 161.0000,1,   2,  11,   1,0.99167, -29.6356,1.10000,0.90000,1.10000,0.90000
  2083,'WICHITA FA~6',  20.0000,2,   2,  11,   1,1.00652, -28.3921,1.10000,0.90000,1.10000,0.90000
  2084,'WICHITA FA~7',  20.0000,1,   2,  11,   1,0.99167, -29.6356,1.10000,0.90000,1.10000,0.90000
  2085,'WICHITA FA~8',  20.0000,1,   2,  11,   1,0.99167, -29.6356,1.10000,0.90000,1.10000,0.90000
  2086,'MONTAGUE 0  ', 161.0000,1,   2,  11,   1,0.99292, -44.9205,1.10000,0.90000,1.10000,0.90000
  2087,'SPUR 0      ', 161.0000,2,   2,  10,   1,1.00506,  -9.5785,1.10000,0.90000,1.10000,0.90000
  2088,'ARCHER 1 0  ', 161.0000,1,   2,  11,   1,0.99557, -31.9960,1.10000,0.90000,1.10000,0.90000
  2089,'ARCHER 1 1  ',  24.0000,2,   2,  11,   1,1.00000, -29.2108,1.10000,0.90000,1.10000,0.90000
  2090,'ANNONA 0    ', 161.0000,1,   2,  11,   1,1.01506, -53.6052,1.10000,0.90000,1.10000,0.90000
  2091,'SEYMOUR 0   ', 161.0000,2,   2,  10,   1,1.00000,  -5.7120,1.10000,0.90000,1.10000,0.90000
  2092,'DENISON 1 0 ', 161.0000,1,   2,  11,   1,1.01968, -57.9185,1.10000,0.90000,1.10000,0.90000
  2093,'PANHANDLE~10', 161.0000,2,   2,  10,   1,1.00234, -10.8396,1.10000,0.90000,1.10000,0.90000
  2094,'PANHANDLE~11',  13.8000,2,   2,  10,   1,1.00000, -10.3335,1.10000,0.90000,1.10000,0.90000
  2095,'PANHANDLE~12',  13.8000,2,   2,  10,   1,1.00000, -10.5869,1.10000,0.90000,1.10000,0.90000
  2096,'RALLS 1 0   ', 500.0000,1,   2,  10,   1,1.02371, -18.0382,1.10000,0.90000,1.10000,0.90000
  2097,'RALLS 1 1   ', 230.0000,1,   2,  10,   1,1.01750, -16.7907,1.10000,0.90000,1.10000,0.90000
  2098,'RALLS 1 2   ', 161.0000,1,   2,  10,   1,0.99073, -10.0214,1.10000,0.90000,1.10000,0.90000
  2099,'RALLS 1 3   ',  18.0000,2,   2,  10,   1,1.02324, -17.9279,1.10000,0.90000,1.10000,0.90000
  2100,'RALLS 1 4   ',  18.0000,2,   2,  10,   1,1.02000, -16.0180,1.10000,0.90000,1.10000,0.90000
  2101,'SHERMAN 1 0 ', 500.0000,1,   2,  11,   1,1.02075, -54.1979,1.10000,0.90000,1.10000,0.90000
  2102,'SHERMAN 1 1 ', 161.0000,1,   2,  11,   1,1.01796, -55.1122,1.10000,0.90000,1.10000,0.90000
  2103,'SHERMAN 1 2 ',  20.0000,1,   2,  11,   1,1.02075, -54.1979,1.10000,0.90000,1.10000,0.90000
  2104,'SHERMAN 1 3 ',  20.0000,1,   2,  11,   1,1.02075, -54.1979,1.10000,0.90000,1.10000,0.90000
  2105,'SHERMAN 1 4 ',  20.0000,1,   2,  11,   1,1.02075, -54.1979,1.10000,0.90000,1.10000,0.90000
  2106,'WHITEWRIGH~1', 161.0000,1,   2,  11,   1,1.00565, -57.6715,1.10000,0.90000,1.10000,0.90000
  2107,'SHERMAN 2 0 ', 161.0000,1,   2,  11,   1,1.01364, -55.8826,1.10000,0.90000,1.10000,0.90000
  2108,'ROCHESTER 0 ', 161.0000,1,   2,  10,   1,0.99869, -20.9415,1.10000,0.90000,1.10000,0.90000
  2109,'BURKBURNET~1', 161.0000,2,   2,  11,   1,1.00000, -29.2573,1.10000,0.90000,1.10000,0.90000
...
0 / END OF BUS DATA, BEGIN LOAD DATA
  1001,'1 ',1,   1,   9,    21.810,     4.735,     0.000,     0.000,     0.000,     0.000,   1,1,0
  1002,'1 ',1,   1,   9,    16.177,     3.512,     0.000,     0.000,     0.000,     0.000,   1,1,0
  1007,'1 ',1,   1,   9,     7.355,     1.597,     0.000,     0.000,     0.000,     0.000,   1,1,0
  1012,'1 ',1,   1,   9,     3.133,     0.680,     0.000,     0.000,     0.000,     0.000,   1,1,0
  1013,'1 ',1,   1,   9,     0.536,     0.116,     0.000,     0.000,     0.000,     0.000,   1,1,0
  1013,'2 ',1,   1,   9,     1.593,     0.346,     0.000,     0.000,     0.000,     0.000,   1,1,0
  1013,'3 ',1,   1,   9,    28.545,     6.197,     0.000,     0.000,     0.000,     0.000,   1,1,0
  1014,'1 ',1,   1,   9,     2.330,     0.506,     0.000,     0.000,     0.000,     0.000,   1,1,0
  1015,'1 ',1,   1,   9,     7.881,     1.711,     0.000,     0.000,     0.000,     0.000,   1,1,0
  1016,'1 ',1,   1,   9,     3.032,     0.659,     0.000,     0.000,     0.000,     0.000,   1,1,0
  1017,'1 ',1,   1,   9,    19.253,     4.180,     0.000,     0.000,     0.000,     0.000,   1,1,0
  1018,'1 ',1,   1,   9,     0.072,     0.016,     0.000,     0.000,     0.000,     0.000,   1,1,0
  1019,'1 ',1,   1,   9,    64.836,    14.077,     0.000,     0.000,     0.000,     0.000,   1,1,0
  1024,'1 ',1,   1,   9,    66.161,    14.364,     0.000,     0.000,     0.000,     0.000,   1,1,0
  1027,'1 ',1,   1,   9,     0.633,     0.138,     0.000,     0.000,     0.000,     0.000,   1,1,0
  1027,'2 ',1,   1,   9,   105.591,    22.926,     0.000,     0.000,     0.000,     0.000,   1,1,0
  1028,'1 ',1,   1,   9,     1.496,     0.325,     0.000,     0.000,     0.000,     0.000,   1,1,0
  1028,'2 ',1,   1,   9,     0.791,     0.171,     0.000,     0.000,     0.000,     0.000,   1,1,0
  1028,'3 ',1,   1,   9,     5.141,     1.116,     0.000,     0.000,     0.000,     0.000,   1,1,0
  1028,'4 ',1,   1,   9,     3.083,     0.669,     0.000,     0.000,     0.000,     0.000,   1,1,0
  1029,'1 ',1,   1,   9,    87.304,    18.955,     0.000,     0.000,     0.000,     0.000,   1,1,0
  1030,'1 ',1,   1,   9,    24.187,     5.252,     0.000,     0.000,     0.000,     0.000,   1,1,0
  1030,'2 ',1,   1,   9,     1.659,     0.360,     0.000,     0.000,     0.000,     0.000,   1,1,0
  1031,'1 ',1,   1,   9,     9.704,     2.107,     0.000,     0.000,     0.000,     0.000,   1,1,0
  1036,'1 ',1,   1,   9,     1.067,     0.232,     0.000,     0.000,     0.000,     0.000,   1,1,0
  1036,'2 ',1,   1,   9,    13.202,     2.866,     0.000,     0.000,     0.000,     0.000,   1,1,0
  1037,'1 ',1,   1,   9,   107.300,    23.296,     0.000,     0.000,     0.000,     0.000,   1,1,0
  1040,'1 ',1,   1,   9,    46.555,    10.108,     0.000,     0.000,     0.000,     0.000,   1,1,0
  1044,'1 ',1,   1,   9,     4.735,     1.028,     0.000,     0.000,     0.000,     0.000,   1,1,0
  1044,'2 ',1,   1,   9,    10.674,     2.317,     0.000,     0.000,     0.000,     0.000,   1,1,0
  1045,'1 ',1,   1,   9,   103.443,    22.459,     0.000,     0.000,     0.000,     0.000,   1,1,0
  1046,'1 ',1,   1,   9,     0.006,     0.002,     0.000,     0.000,     0.000,     0.000,   1,1,0
  1046,'2 ',1,   1,   9,    11.628,     2.524,     0.000,     0.000,     0.000,     0.000,   1,1,0
  1054,'1 ',1,   1,   9,     1.864,     0.405,     0.000,     0.000,     0.000,     0.000,   1,1,0
  1054,'2 ',1,   1,   9,     0.544,     0.118,     0.000,     0.000,     0.000,     0.000,   1,1,0
  1054,'3 ',1,   1,   9,    13.321,     2.892,     0.000,     0.000,     0.000,     0.000,   1,1,0
  1055,'1 ',1,   1,   9,     4.175,     0.906,     0.000,     0.000,     0.000,     0.000,   1,1,0
  1058,'1 ',1,   1,   9,     4.288,     0.931,     0.000,     0.000,     0.000,     0.000,   1,1,0
  1058,'2 ',1,   1,   9,     9.833,     2.135,     0.000,     0.000,     0.000,     0.000,   1,1,0
  1064,'1 ',1,   1,   9,     6.917,     1.502,     0.000,     0.000,     0.000,     0.000,   1,1,0
  1064,'2 ',1,   1,   9,   122.971,    26.699,     0.000,     0.000,     0.000,     0.000,   1,1,0
  1067,'1 ',1,   1,   9,   106.580,    23.140,     0.000,     0.000,     0.000,     0.000,   1,1,0
  1068,'1 ',1,   1,   9,     0.724,     0.157,     0.000,     0.000,     0.000,     0.000,   1,1,0
  1068,'2 ',1,   1,   9,    61.621,    13.378,     0.000,     0.000,     0.000,     0.000,   1,1,0
  1071,'1 ',1,   1,   9,    95.994,    20.842,     0.000,     0.000,     0.000,     0.000,   1,1,0
  1083,'1 ',1,   1,   9,    41.923,     9.102,     0.000,     0.000,     0.000,     0.000,   1,1,0
  1085,'1 ',1,   1,   9,     3.067,     0.666,     0.000,     0.000,     0.000,     0.000,   1,1,0
  1085,'2 ',1,   1,   9,    19.285,     4.187,     0.000,     0.000,     0.000,     0.000,   1,1,0
  1086,'1 ',1,   1,   9,    41.637,     9.040,     0.000,     0.000,     0.000,     0.000,   1,1,0
  1087,'1 ',1,   1,   9,     0.954,     0.207,     0.000,     0.000,     0.000,     0.000,   1,1,0
  1089,'1 ',1,   1,   9,     0.872,     0.189,     0.000,     0.000,     0.000,     0.000,   1,1,0
  1089,'2 ',1,   1,   9,    41.744,     9.063,     0.000,     0.000,     0.000,     0.000,   1,1,0
  1091,'1 ',1,   1,   9,     4.946,     1.074,     0.000,     0.000,     0.000,     0.000,   1,1,0
  1091,'2 ',1,   1,   9,     7.251,     1.575,     0.000,     0.000,     0.000,     0.000,   1,1,0
  2001,'1 ',1,   2,  11,    15.016,     3.260,     0.000,     0.000,     0.000,     0.000,   1,1,0
  2001,'2 ',1,   2,  11,    35.736,     7.758,     0.000,     0.000,     0.000,     0.000,   1,1,0
  2007,'1 ',1,   2,  11,    10.013,     2.174,     0.000,     0.000,     0.000,     0.000,   1,1,0
  2008,'1 ',1,   2,  10,     8.461,     1.837,     0.000,     0.000,     0.000,     0.000,   1,1,0
  2009,'1 ',1,   2,  11,    41.073,     8.917,     0.000,     0.000,     0.000,     0.000,   1,1,0
  2010,'1 ',1,   2,  10,     5.359,     1.164,     0.000,     0.000,     0.000,     0.000,   1,1,0
  2010,'2 ',1,   2,  10,    10.082,     2.189,     0.000,     0.000,     0.000,     0.000,   1,1,0
  2010,'3 ',1,   2,  10,     3.073,     0.668,     0.000,     0.000,     0.000,     0.000,   1,1,0
  2010,'4 ',1,   2,  10,     0.202,     0.043,     0.000,     0.000,     0.000,     0.000,   1,1,0
  2010,'5 ',1,   2,  10,    40.903,     8.880,     0.000,     0.000,     0.000,     0.000,   1,1,0
  2014,'1 ',1,   2,  10,     3.803,     0.826,     0.000,     0.000,     0.000,     0.000,   1,1,0
  2014,'2 ',1,   2,  10,    22.884,     4.969,     0.000,     0.000,     0.000,     0.000,   1,1,0
  2015,'1 ',1,   2,  11,     4.918,     1.068,     0.000,     0.000,     0.000,     0.000,   1,1,0
  2016,'1 ',1,   2,  11,    72.697,    15.784,     0.000,     0.000,     0.000,     0.000,   1,1,0
  2020,'1 ',1,   2,  11,    50.349,    10.931,     0.000,     0.000,     0.000,     0.000,   1,1,0
  2022,'1 ',1,   2,  11,    12.138,     2.635,     0.000,     0.000,     0.000,     0.000,   1,1,0
  2025,'1 ',1,   2,  11,    41.580,     9.028,     0.000,     0.000,     0.000,     0.000,   1,1,0
  2026,'1 ',1,   2,  10,     2.635,     0.572,     0.000,     0.000,     0.000,     0.000,   1,1,0
  2026,'2 ',1,   2,  10,     0.995,     0.216,     0.000,     0.000,     0.000,     0.000,   1,1,0
  2026,'3 ',1,   2,  10,     7.528,     1.634,     0.000,     0.000,     0.000,     0.000,   1,1,0
  2026,'4 ',1,   2,  10,     8.331,     1.809,     0.000,     0.000,     0.000,     0.000,   1,1,0
  2027,'1 ',1,   2,  11,     3.731,     0.810,     0.000,     0.000,     0.000,     0.000,   1,1,0
  2028,'1 ',1,   2,  11,    14.944,     3.244,     0.000,     0.000,     0.000,     0.000,   1,1,0
  2029,'1 ',1,   2,  10,     3.359,     0.729,     0.000,     0.000,     0.000,     0.000,   1,1,0
  2030,'1 ',1,   2,  11,     4.106,     0.891,     0.000,     0.000,     0.000,     0.000,   1,1,0
  2030,'2 ',1,   2,  11,    45.374,     9.851,     0.000,     0.000,     0.000,     0.000,   1,1,0
  2031,'1 ',1,   2,  10,     0.825,     0.179,     0.000,     0.000,     0.000,     0.000,   1,1,0
  2031,'2 ',1,   2,  10,     1.335,     0.290,     0.000,     0.000,     0.000,     0.000,   1,1,0
  2031,'3 ',1,   2,  10,     3.892,     0.845,     0.000,     0.000,     0.000,     0.000,   1,1,0
  2032,'1 ',1,   2,  11,     3.520,     0.764,     0.000,     0.000,     0.000,     0.000,   1,1,0
  2033,'1 ',1,   2,  11,     1.366,     0.297,     0.000,     0.000,     0.000,     0.000,   1,1,0
  2033,'2 ',1,   2,  11,    12.877,     2.796,     0.000,     0.000,     0.000,     0.000,   1,1,0
  2034,'1 ',1,   2,  11,     5.605,     1.217,     0.000,     0.000,     0.000,     0.000,   1,1,0
  2035,'1 ',1,   2,  10,     4.354,     0.946,     0.000,     0.000,     0.000,     0.000,   1,1,0
  2035,'2 ',1,   2,  10,     0.561,     0.121,     0.000,     0.000,     0.000,     0.000,   1,1,0
  2036,'1 ',1,   2,  11,    43.646,     9.476,     0.000,     0.000,     0.000,     0.000,   1,1,0
  2037,'1 ',1,   2,  11,     0.724,     0.157,     0.000,     0.000,     0.000,     0.000,   1,1,0
  2037,'2 ',1,   2,  11,     2.950,     0.640,     0.000,     0.000,     0.000,     0.000,   1,1,0
  2038,'1 ',1,   2,  11,     2.733,     0.594,     0.000,     0.000,     0.000,     0.000,   1,1,0
  2039,'1 ',1,   2,  11,     5.834,     1.267,     0.000,     0.000,     0.000,     0.000,   1,1,0
  2040,'1 ',1,   2,  11,    16.690,     3.624,     0.000,     0.000,     0.000,     0.000,   1,1,0
  2043,'1 ',1,   2,  11,     4.446,     0.965,     0.000,     0.000,     0.000,     0.000,   1,1,0
  2044,'1 ',1,   2,  11,    28.763,     6.245,     0.000,     0.000,     0.000,     0.000,   1,1,0
  2045,'1 ',1,   2,  11,    23.725,     5.151,     0.000,     0.000,     0.000,     0.000,   1,1,0
  2046,'1 ',1,   2,  11,    23.230,     5.043,     0.000,     0.000,     0.000,     0.000,   1,1,0
  2047,'1 ',1,   2,  11,     9.874,     2.144,     0.000,     0.000,     0.000,     0.000,   1,1,0
  2047,'2 ',1,   2,  11,     5.822,     1.264,     0.000,     0.000,     0.000,     0.000,   1,1,0
  2048,'1 ',1,   2,  10,     6.735,     1.462,     0.000,     0.000,     0.000,     0.000,   1,1,0
  2049,'1 ',1,   2,  10,     0.510,     0.111,     0.000,     0.000,     0.000,     0.000,   1,1,0
  2049,'2 ',1,   2,  10,     0.608,     0.132,     0.000,     0.000,     0.000,     0.000,   1,1,0
  2049,'3 ',1,   2,  10,    11.026,     2.394,     0.000,     0.000,     0.000,     0.000,   1,1,0
  2050,'1 ',1,   2,  11,     3.838,     0.833,     0.000,     0.000,     0.000,     0.000,   1,1,0
  2051,'1 ',1,   2,  11,    18.734,     4.067,     0.000,     0.000,     0.000,     0.000,   1,1,0
  2052,'1 ',1,   2,  10,     9.927,     2.155,     0.000,     0.000,     0.000,     0.000,   1,1,0
  2052,'2 ',1,   2,  10,    16.139,     3.504,     0.000,     0.000,     0.000,     0.000,   1,1,0
  2053,'1 ',1,   2,  11,    30.576,     6.638,     0.000,     0.000,     0.000,     0.000,   1,1,0
  2055,'1 ',1,   2,  11,    52.078,    11.307,     0.000,     0.000,     0.000,     0.000,   1,1,0
  2060,'1 ',1,   2,  11,     3.983,     0.865,     0.000,     0.000,     0.000,     0.000,   1,1,0
  2063,'1 ',1,   2,  11,    68.866,    14.952,     0.000,     0.000,     0.000,     0.000,   1,1,0
  2064,'1 ',1,   2,  11,     7.387,     1.604,     0.000,     0.000,     0.000,     0.000,   1,1,0
  2064,'2 ',1,   2,  11,     3.158,     0.686,     0.000,     0.000,     0.000,     0.000,   1,1,0
  2065,'1 ',1,   2,  11,    82.241,    17.856,     0.000,     0.000,     0.000,     0.000,   1,1,0
  2066,'1 ',1,   2,  10,     4.250,     0.922,     0.000,     0.000,     0.000,     0.000,   1,1,0
  2066,'2 ',1,   2,  10,     2.667,     0.579,     0.000,     0.000,     0.000,     0.000,   1,1,0
  2066,'3 ',1,   2,  10,     0.548,     0.119,     0.000,     0.000,     0.000,     0.000,   1,1,0
  2067,'1 ',1,   2,  11,    56.640,    12.298,     0.000,     0.000,     0.000,     0.000,   1,1,0
  2068,'1 ',1,   2,  11,     6.045,     1.313,     0.000,     0.000,     0.000,     0.000,   1,1,0
  2069,'1 ',1,   2,  11,    23.010,     4.996,     0.000,     0.000,     0.000,     0.000,   1,1,0
  2072,'1 ',1,   2,  11,    10.186,     2.212,     0.000,     0.000,     0.000,     0.000,   1,1,0
  2079,'1 ',1,   2,  10,     4.701,     1.021,     0.000,     0.000,     0.000,     0.000,   1,1,0
  2080,'1 ',1,   2,  11,    17.770,     3.858,     0.000,     0.000,     0.000,     0.000,   1,1,0
  2081,'1 ',1,   2,  11,     4.685,     1.017,     0.000,     0.000,     0.000,     0.000,   1,1,0
  2082,'1 ',1,   2,  11,    61.954,    13.451,     0.000,     0.000,     0.000,     0.000,   1,1,0
  2086,'1 ',1,   2,  11,     2.302,     0.499,     0.000,     0.000,     0.000,     0.000,   1,1,0
  2087,'1 ',1,   2,  10,     8.287,     1.799,     0.000,     0.000,     0.000,     0.000,   1,1,0
  2090,'1 ',1,   2,  11,     2.544,     0.553,     0.000,     0.000,     0.000,     0.000,   1,1,0
  2091,'1 ',1,   2,  10,    17.890,     3.884,     0.000,     0.000,     0.000,     0.000,   1,1,0
  2092,'1 ',1,   2,  11,    25.302,     5.494,     0.000,     0.000,     0.000,     0.000,   1,1,0
  2106,'1 ',1,   2,  11,    15.116,     3.282,     0.000,     0.000,     0.000,     0.000,   1,1,0
  2107,'1 ',1,   2,  11,    77.824,    16.896,     0.000,     0.000,     0.000,     0.000,   1,1,0
  2108,'1 ',1,   2,  10,     2.251,     0.489,     0.000,     0.000,     0.000,     0.000,   1,1,0
  2109,'1 ',1,   2,  11,    35.485,     7.704,     0.000,     0.000,     0.000,     0.000,   1,1,0
  2110,'1 ',1,   2,  11,     9.015,     1.958,     0.000,     0.000,     0.000,     0.000,   1,1,0
  2111,'1 ',1,   2,  11,     7.349,     1.596,     0.000,     0.000,     0.000,     0.000,   1,1,0
  2111,'2 ',1,   2,  11,     7.295,     1.584,     0.000,     0.000,     0.000,     0.000,   1,1,0
  2112,'1 ',1,   2,  11,     4.767,     1.035,     0.000,     0.000,     0.000,     0.000,   1,1,0
  2114,'1 ',1,   2,  11,    74.282,    16.127,     0.000,     0.000,     0.000,     0.000,   1,1,0
  2121,'1 ',1,   2,  11,     2.450,     0.532,     0.000,     0.000,     0.000,     0.000,   1,1,0
  2122,'1 ',1,   2,  11,     7.056,     1.532,     0.000,     0.000,     0.000,     0.000,   1,1,0
  2124,'1 ',1,   2,  11,    22.339,     4.850,     0.000,     0.000,     0.000,     0.000,   1,1,0
  2125,'1 ',1,   2,  11,     4.257,     0.924,     0.000,     0.000,     0.000,     0.000,   1,1,0
  2126,'1 ',1,   2,  11,    14.940,     3.243,     0.000,     0.000,     0.000,     0.000,   1,1,0
  2129,'1 ',1,   2,  11,     6.961,     1.511,     0.000,     0.000,     0.000,     0.000,   1,1,0
  2132,'1 ',1,   2,  10,    12.532,     2.721,     0.000,     0.000,     0.000,     0.000,   1,1,0
  2133,'1 ',1,   2,  11,     5.960,     1.294,     0.000,     0.000,     0.000,     0.000,   1,1,0
  3002,'1 ',1,   3,  28,   118.450,    25.717,     0.000,     0.000,     0.000,     0.000,   1,1,0
  3005,'1 ',1,   3,  28,     0.832,     0.180,     0.000,     0.000,     0.000,     0.000,   1,1,0
  3005,'2 ',1,   3,  28,     0.866,     0.188,     0.000,     0.000,     0.000,     0.000,   1,1,0
  3005,'3 ',1,   3,  28,     6.008,     1.304,     0.000,     0.000,     0.000,     0.000,   1,1,0
  3006,'1 ',1,   3,  27,     7.711,     1.674,     0.000,     0.000,     0.000,     0.000,   1,1,0
  3007,'1 ',1,   3,  27,    15.705,     3.410,     0.000,     0.000,     0.000,     0.000,   1,1,0
  3008,'1 ',1,   3,  27,    19.937,     4.328,     0.000,     0.000,     0.000,     0.000,   1,1,0
  3008,'2 ',1,   3,  27,     0.853,     0.185,     0.000,     0.000,     0.000,     0.000,   1,1,0
  3009,'1 ',1,   3,  28,    13.161,     2.857,     0.000,     0.000,     0.000,     0.000,   1,1,0
  3010,'1 ',1,   3,  28,     4.903,     1.064,     0.000,     0.000,     0.000,     0.000,   1,1,0
  3011,'1 ',1,   3,  28,    19.921,     4.325,     0.000,     0.000,     0.000,     0.000,   1,1,0
  3011,'2 ',1,   3,  28,     8.561,     1.859,     0.000,     0.000,     0.000,     0.000,   1,1,0
  3012,'1 ',1,   3,  28,     0.592,     0.129,     0.000,     0.000,     0.000,     0.000,   1,1,0
  3013,'1 ',1,   3,  27,    67.755,    14.710,     0.000,     0.000,     0.000,     0.000,   1,1,0
  3014,'1 ',1,   3,  28,    23.092,     5.014,     0.000,     0.000,     0.000,     0.000,   1,1,0
  3015,'1 ',1,   3,  27,     5.630,     1.222,     0.000,     0.000,     0.000,     0.000,   1,1,0
  3021,'1 ',1,   3,  27,     0.551,     0.120,     0.000,     0.000,     0.000,     0.000,   1,1,0
  3021,'2 ',1,   3,  27,     1.486,     0.322,     0.000,     0.000,     0.000,     0.000,   1,1,0
  3022,'1 ',1,   3,  27,    25.809,     5.603,     0.000,     0.000,     0.000,     0.000,   1,1,0
  3023,'1 ',1,   3,  27,    10.922,     2.372,     0.000,     0.000,     0.000,     0.000,   1,1,0
  3024,'1 ',1,   3,  28,    10.633,     2.308,     0.000,     0.000,     0.000,     0.000,   1,1,0
  3025,'1 ',1,   3,  28,    14.352,     3.116,     0.000,     0.000,     0.000,     0.000,   1,1,0
  3029,'1 ',1,   3,  28,     5.107,     1.109,     0.000,     0.000,     0.000,     0.000,   1,1,0
  3030,'1 ',1,   3,  27,   136.145,    29.559,     0.000,     0.000,     0.000,     0.000,   1,1,0
  3031,'1 ',1,   3,  27,    15.463,     3.357,     0.000,     0.000,     0.000,     0.000,   1,1,0
  3032,'1 ',1,   3,  27,    76.473,    16.603,     0.000,     0.000,     0.000,     0.000,   1,1,0
  3035,'1 ',1,   3,  28,     3.637,     0.790,     0.000,     0.000,     0.000,     0.000,   1,1,0
  3036,'1 ',1,   3,  28,     1.363,     0.296,     0.000,     0.000,     0.000,     0.000,   1,1,0
  3036,'2 ',1,   3,  28,     4.726,     1.026,     0.000,     0.000,     0.000,     0.000,   1,1,0
  3040,'1 ',1,   3,  27,    15.330,     3.329,     0.000,     0.000,     0.000,     0.000,   1,1,0
  3042,'1 ',1,   3,  27,     5.265,     1.143,     0.000,     0.000,     0.000,     0.000,   1,1,0
  3042,'2 ',1,   3,  27,     3.923,     0.852,     0.000,     0.000,     0.000,     0.000,   1,1,0
  3049,'1 ',1,   3,  27,    11.108,     2.412,     0.000,     0.000,     0.000,     0.000,   1,1,0
  3051,'1 ',1,   3,  28,     0.885,     0.192,     0.000,     0.000,     0.000,     0.000,   1,1,0
  3051,'2 ',1,   3,  28,   151.601,    32.915,     0.000,     0.000,     0.000,     0.000,   1,1,0
  3052,'1 ',1,   3,  28,     8.476,     1.840,     0.000,     0.000,     0.000,     0.000,   1,1,0
  3066,'1 ',1,   3,  28,    23.127,     5.021,     0.000,     0.000,     0.000,     0.000,   1,1,0
  3069,'1 ',1,   3,  27,     4.002,     0.869,     0.000,     0.000,     0.000,     0.000,   1,1,0
  3072,'1 ',1,   3,  27,     6.281,     1.364,     0.000,     0.000,     0.000,     0.000,   1,1,0
  3075,'1 ',1,   3,  28,    12.787,     2.776,     0.000,     0.000,     0.000,     0.000,   1,1,0
  3076,'1 ',1,   3,  28,    11.328,     2.459,     0.000,     0.000,     0.000,     0.000,   1,1,0
  3077,'1 ',1,   3,  27,    72.056,    15.644,     0.000,     0.000,     0.000,     0.000,   1,1,0
  3093,'1 ',1,   3,  28,     5.296,     1.150,     0.000,     0.000,     0.000,     0.000,   1,1,0
  3099,'1 ',1,   3,  27,    12.676,     2.752,     0.000,     0.000,     0.000,     0.000,   1,1,0
  3100,'1 ',1,   3,  27,     8.948,     1.943,     0.000,     0.000,     0.000,     0.000,   1,1,0
  3101,'1 ',1,   3,  28,     0.110,     0.024,     0.000,     0.000,     0.000,     0.000,   1,1,0
  3101,'2 ',1,   3,  28,     2.931,     0.636,     0.000,     0.000,     0.000,     0.000,   1,1,0
  3101,'3 ',1,   3,  28,     6.858,     1.489,     0.000,     0.000,     0.000,     0.000,   1,1,0
  3102,'1 ',1,   3,  27,    78.982,    17.148,     0.000,     0.000,     0.000,     0.000,   1,1,0
  3103,'1 ',1,   3,  27,     0.350,     0.076,     0.000,     0.000,     0.000,     0.000,   1,1,0
  3103,'2 ',1,   3,  27,    40.916,     8.884,     0.000,     0.000,     0.000,     0.000,   1,1,0
...
0 / END OF LOAD DATA, BEGIN FIXED SHUNT DATA
  2017,'2 ',1,     0.000,     0.000
  2096,'2 ',1,     0.000,     0.000
  3051,'2 ',0,     0.000,    80.000
  8005,'1 ',0,     0.000,   100.000
0 / END OF FIXED SHUNT DATA, BEGIN GENERATOR DATA
  1004,'1 ',   122.036,    26.635,    44.940,   -30.380,1.01000,     0,   253.200, 0.00000E+0, 1.00000E+0, 0.00000E+0, 0.00000E+0,1.00000,1,  100.0,   211.000,    63.300,   1,1.0000,    ,      ,    ,      ,    ,      ,1, 1.0000
  1006,'1 ',    19.842,    -0.765,     7.310,    -4.940,1.00000,     0,    41.160, 0.00000E+0, 1.00000E+0, 0.00000E+0, 0.00000E+0,1.00000,1,  100.0,    34.300,    10.290,   1,1.0000,    ,      ,    ,      ,    ,      ,1, 1.0000
  1007,'1 ',   167.028,     0.000,     0.000,     0.000,1.00000,     0,   601.650, 0.00000E+0, 1.00000E+0, 0.00000E+0, 0.00000E+0,1.00000,1,  100.0,   481.320,     0.000,   1,1.0000,    ,      ,    ,      ,    ,      ,1, 1.0000
  1009,'1 ',    47.712,   -11.136,    17.570,   -11.880,1.00000,     0,    99.000, 0.00000E+0, 1.00000E+0, 0.00000E+0, 0.00000E+0,1.00000,1,  100.0,    82.500,    24.750,   1,1.0000,    ,      ,    ,      ,    ,      ,1, 1.0000
  1011,'1 ',     7.712,     0.000,     0.000,     0.000,1.00000,     0,    12.000, 0.00000E+0, 1.00000E+0, 0.00000E+0, 0.00000E+0,1.00000,1,  100.0,    10.000,     3.000,   1,1.0000,    ,      ,    ,      ,    ,      ,1, 1.0000
  1016,'1 ',   338.901,   -54.971,   381.179,  -381.179,1.00000,     0,  1220.750, 0.00000E+0, 1.00000E+0, 0.00000E+0, 0.00000E+0,1.00000,1,  100.0,   976.600,     0.000,   1,1.0000,    ,      ,    ,      ,    ,      ,1, 1.0000
  1016,'2 ',   104.107,   -16.886,   117.094,  -117.094,1.00000,     0,   375.000, 0.00000E+0, 1.00000E+0, 0.00000E+0, 0.00000E+0,1.00000,1,  100.0,   300.000,     0.000,   1,1.0000,    ,      ,    ,      ,    ,      ,1, 1.0000
  1021,'1 ',   115.389,    -9.634,    42.490,   -28.730,1.00000,     0,   239.400, 0.00000E+0, 1.00000E+0, 0.00000E+0, 0.00000E+0,1.00000,1,  100.0,   199.500,    59.850,   1,1.0000,    ,      ,    ,      ,    ,      ,1, 1.0000
  1022,'1 ',    92.377,     0.000,     0.000,     0.000,1.00000,     0,   332.750, 0.00000E+0, 1.00000E+0, 0.00000E+0, 0.00000E+0,1.00000,1,  100.0,   266.200,     0.000,   1,1.0000,    ,      ,    ,      ,    ,      ,1, 1.0000
  1023,'1 ',   104.107,    15.916,    38.340,   -25.920,1.01000,     0,   216.000, 0.00000E+0, 1.00000E+0, 0.00000E+0, 0.00000E+0,1.00000,1,  100.0,   180.000,    54.000,   1,1.0000,    ,      ,    ,      ,    ,      ,1, 1.0000
  1023,'2 ',    92.377,     0.000,     0.000,     0.000,1.01000,     0,   332.750, 0.00000E+0, 1.00000E+0, 0.00000E+0, 0.00000E+0,1.00000,1,  100.0,   266.200,     0.000,   1,1.0000,    ,      ,    ,      ,    ,      ,1, 1.0000
  1026,'1 ',    71.833,     1.618,    26.450,   -17.880,1.00000,     0,   149.040, 0.00000E+0, 1.00000E+0, 0.00000E+0, 0.00000E+0,1.00000,1,  100.0,   124.200,    37.260,   1,1.0000,    ,      ,    ,      ,    ,      ,1, 1.0000
  1027,'1 ',     1.249,     1.405,     1.405,    -1.405,1.00000,     0,     4.500, 0.00000E+0, 1.00000E+0, 0.00000E+0, 0.00000E+0,1.00000,1,  100.0,     3.600,     0.000,   1,1.0000,    ,      ,    ,      ,    ,      ,1, 1.0000
  1028,'1 ',   195.686,   -56.406,   220.097,  -220.097,1.00000,     0,   704.875, 0.00000E+0, 1.00000E+0, 0.00000E+0, 0.00000E+0,1.00000,1,  100.0,   563.900,     0.000,   1,1.0000,    ,      ,    ,      ,    ,      ,1, 1.0000
  1029,'1 ',    48.687,     8.823,    54.761,   -54.761,1.00000,     0,   175.375, 0.00000E+0, 1.00000E+0, 0.00000E+0, 0.00000E+0,1.00000,1,  100.0,   140.300,     0.000,   1,1.0000,    ,      ,    ,      ,    ,      ,1, 1.0000
  1030,'1 ',    17.351,     0.000,     0.000,     0.000,1.00000,     0,    62.500, 0.00000E+0, 1.00000E+0, 0.00000E+0, 0.00000E+0,1.00000,1,  100.0,    50.000,     0.000,   1,1.0000,    ,      ,    ,      ,    ,      ,1, 1.0000
  1032,'1 ',   161.279,     0.000,     0.000,     0.000,1.00000,     0,   580.938, 0.00000E+0, 1.00000E+0, 0.00000E+0, 0.00000E+0,1.00000,1,  100.0,   464.750,     0.000,   1,1.0000,    ,      ,    ,      ,    ,      ,1, 1.0000
  1033,'1 ',   160.787,     9.871,    59.210,   -40.030,1.00000,     0,   333.600, 0.00000E+0, 1.00000E+0, 0.00000E+0, 0.00000E+0,1.00000,1,  100.0,   278.000,    83.400,   1,1.0000,    ,      ,    ,      ,    ,      ,1, 1.0000
  1033,'2 ',   161.279,     0.000,     0.000,     0.000,1.00000,     0,   580.938, 0.00000E+0, 1.00000E+0, 0.00000E+0, 0.00000E+0,1.00000,1,  100.0,   464.750,     0.000,   1,1.0000,    ,      ,    ,      ,    ,      ,1, 1.0000
  1035,'1 ',    52.053,    -3.234,    19.170,   -12.960,1.00000,     0,   108.000, 0.00000E+0, 1.00000E+0, 0.00000E+0, 0.00000E+0,1.00000,1,  100.0,    90.000,    27.000,   1,1.0000,    ,      ,    ,      ,    ,      ,1, 1.0000
  1036,'1 ',    90.920,     0.000,     0.000,     0.000,1.00000,     0,   327.500, 0.00000E+0, 1.00000E+0, 0.00000E+0, 0.00000E+0,1.00000,1,  100.0,   262.000,     0.000,   1,1.0000,    ,      ,    ,      ,    ,      ,1, 1.0000
  1037,'1 ',    62.464,     0.000,     0.000,     0.000,1.00000,     0,   225.000, 0.00000E+0, 1.00000E+0, 0.00000E+0, 0.00000E+0,1.00000,1,  100.0,   180.000,     0.000,   1,1.0000,    ,      ,    ,      ,    ,      ,1, 1.0000
  1039,'1 ',    85.313,   -10.657,    31.420,   -21.240,1.00000,     0,   177.000, 0.00000E+0, 1.00000E+0, 0.00000E+0, 0.00000E+0,1.00000,1,  100.0,   147.500,    44.250,   1,1.0000,    ,      ,    ,      ,    ,      ,1, 1.0000
  1040,'1 ',    55.766,   -62.531,    62.723,   -62.723,1.00000,     0,   200.875, 0.00000E+0, 1.00000E+0, 0.00000E+0, 0.00000E+0,1.00000,1,  100.0,   160.700,     0.000,   1,1.0000,    ,      ,    ,      ,    ,      ,1, 1.0000
  1040,'2 ',   376.137,     0.000,     0.000,     0.000,1.00000,     0,  1354.875, 0.00000E+0, 1.00000E+0, 0.00000E+0, 0.00000E+0,1.00000,1,  100.0,  1083.900,     0.000,   1,1.0000,    ,      ,    ,      ,    ,      ,1, 1.0000
  1042,'1 ',     0.000,     0.000,    25.960,   -17.550,1.00000,     0,   146.280, 0.00000E+0, 1.00000E+0, 0.00000E+0, 0.00000E+0,1.00000,0,  100.0,   121.900,    36.570,   1,1.0000,    ,      ,    ,      ,    ,      ,1, 1.0000
  1043,'1 ',    34.008,    -3.194,    12.520,    -8.470,1.00000,     0,    70.560, 0.00000E+0, 1.00000E+0, 0.00000E+0, 0.00000E+0,1.00000,1,  100.0,    58.800,    17.640,   1,1.0000,    ,      ,    ,      ,    ,      ,1, 1.0000
  1044,'1 ',   104.939,   -11.408,   118.030,  -118.030,1.00000,     0,   378.000, 0.00000E+0, 1.00000E+0, 0.00000E+0, 0.00000E+0,1.00000,1,  100.0,   302.400,     0.000,   1,1.0000,    ,      ,    ,      ,    ,      ,1, 1.0000
  1046,'1 ',   529.035,  -100.906,   595.031,  -595.031,1.00000,     0,  1905.625, 0.00000E+0, 1.00000E+0, 0.00000E+0, 0.00000E+0,1.00000,1,  100.0,  1524.500,     0.000,   1,1.0000,    ,      ,    ,      ,    ,      ,1, 1.0000
  1048,'1 ',     0.000,     0.000,   165.530,   -36.100,1.00000,     0,   390.240, 0.00000E+0, 3.50000E-1, 0.00000E+0, 0.00000E+0,1.00000,0,  100.0,   325.200,    97.560,   1,1.0000
  1049,'1 ',     0.000,     0.000,   165.530,   -36.100,1.00000,     0,   390.240, 0.00000E+0, 2.30000E-1, 0.00000E+0, 0.00000E+0,1.00000,0,  100.0,   325.200,    97.560,   1,1.0000
  1050,'1 ',    68.942,     0.066,    45.500,    -9.920,1.00000,     0,   107.280, 0.00000E+0, 1.50000E-1, 0.00000E+0, 0.00000E+0,1.00000,1,  100.0,    89.400,    26.820,   1,1.0000
  1051,'1 ',    68.942,    -0.665,    45.500,    -9.920,1.00000,     0,   107.280, 0.00000E+0, 3.10000E-1, 0.00000E+0, 0.00000E+0,1.00000,1,  100.0,    89.400,    26.820,   1,1.0000
  1052,'1 ',    68.942,    -0.820,    45.500,    -9.920,1.00000,     0,   107.280, 0.00000E+0, 2.60000E-1, 0.00000E+0, 0.00000E+0,1.00000,1,  100.0,    89.400,    26.820,   1,1.0000
  1053,'1 ',     0.000,     0.000,    91.010,   -19.850,1.00000,     0,   214.560, 0.00000E+0, 2.80000E-1, 0.00000E+0, 0.00000E+0,1.00000,0,  100.0,   178.800,    53.640,   1,1.0000
  1055,'1 ',    85.853,    -7.678,    96.563,   -96.563,1.00000,     0,   309.250, 0.00000E+0, 1.00000E+0, 0.00000E+0, 0.00000E+0,1.00000,1,  100.0,   247.400,     0.000,   1,1.0000,    ,      ,    ,      ,    ,      ,1, 1.0000
  1057,'1 ',     0.000,     0.000,    25.560,   -17.280,1.00000,     0,   144.000, 0.00000E+0, 1.00000E+0, 0.00000E+0, 0.00000E+0,1.00000,0,  100.0,   120.000,    36.000,   1,1.0000,    ,      ,    ,      ,    ,      ,1, 1.0000
  1059,'1 ',     0.000,     0.000,     2.850,    -0.620,1.04000,     0,     6.720, 0.00000E+0, 3.10000E-1, 0.00000E+0, 0.00000E+0,1.00000,0,  100.0,     5.600,     1.680,   1,1.0000
  1060,'1 ',     0.000,     0.000,     1.020,    -0.220,1.04000,     0,     2.400, 0.00000E+0, 1.80000E-1, 0.00000E+0, 0.00000E+0,1.00000,0,  100.0,     2.000,     0.600,   1,1.0000
  1061,'1 ',    40.487,   -45.536,    45.536,   -45.536,1.00000,     0,   145.833, 0.00000E+0, 1.00000E+0, 0.00000E+0, 0.00000E+0,1.00000,1,  100.0,   116.667,     0.000,   1,1.0000,    ,      ,    ,      ,    ,      ,1, 1.0000
  1062,'1 ',     0.000,     0.000,     0.000,     0.000,1.01000,     0,     1.800, 0.00000E+0, 1.00000E+0, 0.00000E+0, 0.00000E+0,1.00000,0,  100.0,     1.500,     0.450,   1,1.0000,    ,      ,    ,      ,    ,      ,1, 1.0000
  1062,'2 ',    40.487,     9.830,    45.536,   -45.536,1.01000,     0,   145.833, 0.00000E+0, 1.00000E+0, 0.00000E+0, 0.00000E+0,1.00000,1,  100.0,   116.667,     0.000,   1,1.0000,    ,      ,    ,      ,    ,      ,1, 1.0000
  1063,'1 ',     0.000,     0.000,     0.000,     0.000,1.01000,     0,   276.000, 0.00000E+0, 1.00000E+0, 0.00000E+0, 0.00000E+0,1.00000,0,  100.0,   230.000,    69.000,   1,1.0000,    ,      ,    ,      ,    ,      ,1, 1.0000
  1063,'2 ',    40.487,     7.232,    45.536,   -45.536,1.01000,     0,   145.833, 0.00000E+0, 1.00000E+0, 0.00000E+0, 0.00000E+0,1.00000,1,  100.0,   116.667,     0.000,   1,1.0000,    ,      ,    ,      ,    ,      ,1, 1.0000
  1066,'1 ',    82.422,    -3.993,    30.350,   -20.520,1.00000,     0,   171.000, 0.00000E+0, 1.00000E+0, 0.00000E+0, 0.00000E+0,1.00000,1,  100.0,   142.500,    42.750,   1,1.0000,    ,      ,    ,      ,    ,      ,1, 1.0000
  1070,'1 ',    92.832,    29.708,    34.190,   -23.110,1.04000,     0,   192.600, 0.00000E+0, 1.00000E+0, 0.00000E+0, 0.00000E+0,1.00000,1,  100.0,   160.500,    48.150,   1,1.0000,    ,      ,    ,      ,    ,      ,1, 1.0000
  1072,'1 ',   148.163,    45.482,    97.800,   -21.330,1.01000,     0,   230.560, 0.00000E+0, 2.90000E-1, 0.00000E+0, 0.00000E+0,1.00000,1,  100.0,   192.130,    57.640,   1,1.0000
  1073,'1 ',   148.163,    32.615,    97.800,   -21.330,1.01000,     0,   230.560, 0.00000E+0, 3.10000E-1, 0.00000E+0, 0.00000E+0,1.00000,1,  100.0,   192.130,    57.640,   1,1.0000
  1074,'1 ',   148.163,    34.287,    97.800,   -21.330,1.01000,     0,   230.560, 0.00000E+0, 4.00000E-1, 0.00000E+0, 0.00000E+0,1.00000,1,  100.0,   192.130,    57.640,   1,1.0000
  1075,'1 ',   148.163,    42.823,    97.800,   -21.330,1.01000,     0,   230.560, 0.00000E+0, 2.70000E-1, 0.00000E+0, 0.00000E+0,1.00000,1,  100.0,   192.130,    57.640,   1,1.0000
  1076,'1 ',     0.000,     0.000,    97.800,   -21.330,1.01000,     0,   230.560, 0.00000E+0, 1.30000E-1, 0.00000E+0, 0.00000E+0,1.00000,0,  100.0,   192.130,    57.640,   1,1.0000
  1077,'1 ',     0.000,     0.000,    97.800,   -21.330,1.01000,     0,   230.560, 0.00000E+0, 3.90000E-1, 0.00000E+0, 0.00000E+0,1.00000,0,  100.0,   192.130,    57.640,   1,1.0000
  1078,'1 ',    73.646,    22.948,    48.610,   -10.600,1.01000,     0,   114.600, 0.00000E+0, 1.20000E-1, 0.00000E+0, 0.00000E+0,1.00000,1,  100.0,    95.500,    28.650,   1,1.0000
  1079,'1 ',    73.646,   -10.600,    48.610,   -10.600,1.01000,     0,   114.600, 0.00000E+0, 4.40000E-1, 0.00000E+0, 0.00000E+0,1.00000,1,  100.0,    95.500,    28.650,   1,1.0000
  1080,'1 ',    73.646,    19.475,    48.610,   -10.600,1.01000,     0,   114.600, 0.00000E+0, 1.30000E-1, 0.00000E+0, 0.00000E+0,1.00000,1,  100.0,    95.500,    28.650,   1,1.0000
  1081,'1 ',     0.000,     0.000,   145.830,   -31.800,1.01000,     0,   343.800, 0.00000E+0, 1.50000E-1, 0.00000E+0, 0.00000E+0,1.00000,0,  100.0,   286.500,    85.950,   1,1.0000
  1082,'1 ',    86.755,   -21.600,    31.950,   -21.600,1.00000,     0,   180.000, 0.00000E+0, 1.00000E+0, 0.00000E+0, 0.00000E+0,1.00000,1,  100.0,   150.000,    45.000,   1,1.0000,    ,      ,    ,      ,    ,      ,1, 1.0000
  1083,'1 ',    66.524,   -74.823,    74.823,   -74.823,1.00000,     0,   239.625, 0.00000E+0, 1.00000E+0, 0.00000E+0, 0.00000E+0,1.00000,1,  100.0,   191.700,     0.000,   1,1.0000,    ,      ,    ,      ,    ,      ,1, 1.0000
  1083,'2 ',   553.726,     0.000,     0.000,     0.000,1.00000,     0,  1994.563, 0.00000E+0, 1.00000E+0, 0.00000E+0, 0.00000E+0,1.00000,1,  100.0,  1595.650,     0.000,   1,1.0000,    ,      ,    ,      ,    ,      ,1, 1.0000
  1084,'1 ',    66.798,    24.600,    24.600,   -16.630,1.04000,     0,   138.600, 0.00000E+0, 1.00000E+0, 0.00000E+0, 0.00000E+0,1.00000,1,  100.0,   115.500,    34.650,   1,1.0000,    ,      ,    ,      ,    ,      ,1, 1.0000
  1085,'1 ',    52.956,   -34.834,    59.562,   -59.562,1.00000,     0,   190.750, 0.00000E+0, 1.00000E+0, 0.00000E+0, 0.00000E+0,1.00000,1,  100.0,   152.600,     0.000,   1,1.0000,    ,      ,    ,      ,    ,      ,1, 1.0000
  1085,'2 ',    87.793,     0.000,     0.000,     0.000,1.00000,     0,   316.237, 0.00000E+0, 1.00000E+0, 0.00000E+0, 0.00000E+0,1.00000,1,  100.0,   252.990,     0.000,   1,1.0000,    ,      ,    ,      ,    ,      ,1, 1.0000
  1086,'1 ',    34.702,     0.000,     0.000,     0.000,1.00000,     0,   125.000, 0.00000E+0, 1.00000E+0, 0.00000E+0, 0.00000E+0,1.00000,1,  100.0,   100.000,     0.000,   1,1.0000,    ,      ,    ,      ,    ,      ,1, 1.0000
  1088,'1 ',    43.378,     2.445,    15.970,   -10.800,1.00000,     0,    90.000, 0.00000E+0, 1.00000E+0, 0.00000E+0, 0.00000E+0,1.00000,1,  100.0,    75.000,    22.500,   1,1.0000,    ,      ,    ,      ,    ,      ,1, 1.0000
  1089,'1 ',    73.291,   -27.906,    82.434,   -82.434,1.00000,     0,   264.000, 0.00000E+0, 1.00000E+0, 0.00000E+0, 0.00000E+0,1.00000,1,  100.0,   211.200,     0.000,   1,1.0000,    ,      ,    ,      ,    ,      ,1, 1.0000
  1089,'2 ',    52.608,     0.000,     0.000,     0.000,1.00000,     0,   189.500, 0.00000E+0, 1.00000E+0, 0.00000E+0, 0.00000E+0,1.00000,1,  100.0,   151.600,     0.000,   1,1.0000,    ,      ,    ,      ,    ,      ,1, 1.0000
  1090,'1 ',    88.197,    32.480,    32.480,   -21.960,1.02000,     0,   183.000, 0.00000E+0, 1.00000E+0, 0.00000E+0, 0.00000E+0,1.00000,1,  100.0,   152.500,    45.750,   1,1.0000
  1090,'2 ',    20.821,     7.670,     7.670,    -5.180,1.02000,     0,    43.200, 0.00000E+0, 1.00000E+0, 0.00000E+0, 0.00000E+0,1.00000,1,  100.0,    36.000,    10.800,   1,1.0000
  2004,'1 ',     0.000,     0.000,   199.430,   -43.490,1.02000,     0,   470.160, 0.00000E+0, 3.90000E-1, 0.00000E+0, 0.00000E+0,1.00000,0,  100.0,   391.800,   117.540,   1,1.0000
  2005,'1 ',     0.000,     0.000,   199.430,   -43.490,1.02000,     0,   470.160, 0.00000E+0, 2.30000E-1, 0.00000E+0, 0.00000E+0,1.00000,0,  100.0,   391.800,   117.540,   1,1.0000
  2006,'1 ',     0.000,     0.000,   199.430,   -43.490,1.02000,     0,   470.160, 0.00000E+0, 4.70000E-1, 0.00000E+0, 0.00000E+0,1.00000,0,  100.0,   391.800,   117.540,   1,1.0000
  2008,'1 ',    83.285,     0.000,     0.000,     0.000,1.00000,     0,   300.000, 0.00000E+0, 1.00000E+0, 0.00000E+0, 0.00000E+0,1.00000,1,  100.0,   240.000,     0.000,   1,1.0000,    ,      ,    ,      ,    ,      ,1, 1.0000
  2010,'1 ',   121.562,    -0.850,   136.726,  -136.726,1.00000,     0,   437.875, 0.00000E+0, 1.00000E+0, 0.00000E+0, 0.00000E+0,1.00000,1,  100.0,   350.300,     0.000,   1,1.0000,    ,      ,    ,      ,    ,      ,1, 1.0000
  2011,'1 ',     6.652,    -7.481,     7.481,    -7.481,1.00000,     0,    23.958, 0.00000E+0, 1.00000E+0, 0.00000E+0, 0.00000E+0,1.00000,1,  100.0,    19.167,     0.000,   1,1.0000,    ,      ,    ,      ,    ,      ,1, 1.0000
  2012,'1 ',     6.652,     7.481,     7.481,     7.481,1.00000,     0,    23.958, 0.00000E+0, 1.00000E+0, 0.00000E+0, 0.00000E+0,1.00000,1,  100.0,    19.167,     0.000,   1,1.0000,    ,      ,    ,      ,    ,      ,1, 1.0000
  2013,'1 ',   116.021,   -28.890,    42.730,   -28.890,1.00000,     0,   240.720, 0.00000E+0, 1.00000E+0, 0.00000E+0, 0.00000E+0,1.00000,1,  100.0,   200.600,    60.180,   1,1.0000,    ,      ,    ,      ,    ,      ,1, 1.0000
  2013,'2 ',     6.652,    -7.481,     7.481,    -7.481,1.00000,     0,    23.958, 0.00000E+0, 1.00000E+0, 0.00000E+0, 0.00000E+0,1.00000,1,  100.0,    19.167,     0.000,   1,1.0000,    ,      ,    ,      ,    ,      ,1, 1.0000
  2016,'1 ',     7.045,     0.000,     0.000,     0.000,1.00000,     0,    25.375, 0.00000E+0, 1.00000E+0, 0.00000E+0, 0.00000E+0,1.00000,1,  100.0,    20.300,     0.000,   1,1.0000,    ,      ,    ,      ,    ,      ,1, 1.0000
  2019,'1 ',     0.000,     0.000,    46.430,   -31.390,1.04000,     0,   261.600, 0.00000E+0, 1.00000E+0, 0.00000E+0, 0.00000E+0,1.00000,0,  100.0,   218.000,    65.400,   1,1.0000,    ,      ,    ,      ,    ,      ,1, 1.0000
  2023,'1 ',    64.261,    -5.904,    42.420,    -9.250,1.02000,     0,   100.000, 0.00000E+0, 1.40000E-1, 0.00000E+0, 0.00000E+0,1.00000,1,  100.0,    83.330,    25.000,   1,1.0000
  2024,'1 ',   128.529,    -7.794,    84.830,   -18.500,1.02000,     0,   200.000, 0.00000E+0, 3.10000E-1, 0.00000E+0, 0.00000E+0,1.00000,1,  100.0,   166.670,    50.000,   1,1.0000
  2029,'1 ',    52.019,   -11.338,    58.508,   -58.508,1.00000,     0,   187.375, 0.00000E+0, 1.00000E+0, 0.00000E+0, 0.00000E+0,1.00000,1,  100.0,   149.900,     0.000,   1,1.0000,    ,      ,    ,      ,    ,      ,1, 1.0000
  2029,'2 ',   333.731,   -72.739,   375.363,  -375.363,1.00000,     0,  1202.125, 0.00000E+0, 1.00000E+0, 0.00000E+0, 0.00000E+0,1.00000,1,  100.0,   961.700,     0.000,   1,1.0000,    ,      ,    ,      ,    ,      ,1, 1.0000
  2029,'3 ',   174.205,     0.000,     0.000,     0.000,1.00000,     0,   627.500, 0.00000E+0, 1.00000E+0, 0.00000E+0, 0.00000E+0,1.00000,1,  100.0,   502.000,     0.000,   1,1.0000,    ,      ,    ,      ,    ,      ,1, 1.0000
  2035,'1 ',   279.144,   -27.557,   313.967,  -313.967,1.00000,     0,  1005.500, 0.00000E+0, 1.00000E+0, 0.00000E+0, 0.00000E+0,1.00000,1,  100.0,   804.400,     0.000,   1,1.0000,    ,      ,    ,      ,    ,      ,1, 1.0000
  2041,'1 ',    72.892,   -52.185,    81.985,   -81.985,1.00000,     0,   262.563, 0.00000E+0, 1.00000E+0, 0.00000E+0, 0.00000E+0,1.00000,1,  100.0,   210.050,     0.000,   1,1.0000,    ,      ,    ,      ,    ,      ,1, 1.0000
  2041,'2 ',    98.051,   -70.197,   110.283,  -110.283,1.00000,     0,   353.188, 0.00000E+0, 1.00000E+0, 0.00000E+0, 0.00000E+0,1.00000,1,  100.0,   282.550,     0.000,   1,1.0000,    ,      ,    ,      ,    ,      ,1, 1.0000
  2041,'3 ',    39.977,   -28.620,    44.964,   -44.964,1.00000,     0,   144.000, 0.00000E+0, 1.00000E+0, 0.00000E+0, 0.00000E+0,1.00000,1,  100.0,   115.200,     0.000,   1,1.0000,    ,      ,    ,      ,    ,      ,1, 1.0000
  2042,'1 ',    46.038,    11.172,    16.950,   -11.460,1.01000,     0,    95.520, 0.00000E+0, 1.00000E+0, 0.00000E+0, 0.00000E+0,1.00000,1,  100.0,    79.600,    23.880,   1,1.0000,    ,      ,    ,      ,    ,      ,1, 1.0000
  2042,'2 ',    72.892,    17.688,    81.985,   -81.985,1.01000,     0,   262.563, 0.00000E+0, 1.00000E+0, 0.00000E+0, 0.00000E+0,1.00000,1,  100.0,   210.050,     0.000,   1,1.0000,    ,      ,    ,      ,    ,      ,1, 1.0000
  2042,'3 ',    98.051,    23.793,   110.283,  -110.283,1.01000,     0,   353.188, 0.00000E+0, 1.00000E+0, 0.00000E+0, 0.00000E+0,1.00000,1,  100.0,   282.550,     0.000,   1,1.0000,    ,      ,    ,      ,    ,      ,1, 1.0000
  2042,'4 ',    39.977,     9.701,    44.964,   -44.964,1.01000,     0,   144.000, 0.00000E+0, 1.00000E+0, 0.00000E+0, 0.00000E+0,1.00000,1,  100.0,   115.200,     0.000,   1,1.0000,    ,      ,    ,      ,    ,      ,1, 1.0000
...